1000.0 300.0 0.0
0.0    300.0 0.0  5.0  0.0
896.0  300.0 0.0  5.0  0.0
